Version 4
SHEET 1 880 680
WIRE 176 288 80 288
WIRE 320 288 256 288
WIRE 448 288 320 288
WIRE 80 304 80 288
WIRE 320 368 208 368
WIRE 448 368 448 352
WIRE 448 368 320 368
WIRE 208 384 208 368
WIRE 208 384 80 384
WIRE 320 384 320 368
FLAG 320 384 0
SYMBOL Res 304 272 R0
SYMATTR InstName R1
SYMATTR Value 3.3Meg
SYMBOL Res 272 272 R90
WINDOW 0 0 56 VBottom 2
WINDOW 3 32 56 VTop 2
SYMATTR InstName R2
SYMATTR Value 1G
SYMBOL Cap 432 288 R0
SYMATTR InstName C1
SYMATTR Value 100p
SYMBOL voltage 80 288 R0
WINDOW 3 24 96 Invisible 2
WINDOW 123 24 118 Left 2
SYMATTR InstName V1
SYMATTR Value SINE(0 1 1k)
SYMATTR Value2 AC 1
TEXT 24 176 Left 2 !.ac oct 100 0.1 100k
