Version 4
SHEET 1 1044 680
WIRE 784 -64 192 -64
WIRE 352 32 272 32
WIRE 464 32 416 32
WIRE 848 48 720 48
WIRE 976 48 912 48
WIRE 192 128 192 -64
WIRE 192 128 -112 128
WIRE 272 128 272 32
WIRE 352 128 272 128
WIRE 464 128 464 32
WIRE 464 128 432 128
WIRE 720 144 720 48
WIRE 832 144 720 144
WIRE 976 144 976 48
WIRE 976 144 912 144
WIRE -112 176 -112 128
WIRE 192 176 192 128
WIRE 368 176 192 176
WIRE 368 208 368 176
WIRE 272 224 272 128
WIRE 272 224 32 224
WIRE 336 224 272 224
WIRE 784 224 784 -64
WIRE 464 240 464 128
WIRE 464 240 400 240
WIRE 528 240 464 240
WIRE 624 240 592 240
WIRE 720 240 720 144
WIRE 720 240 704 240
WIRE 752 240 720 240
WIRE 336 256 288 256
WIRE 976 256 976 144
WIRE 976 256 816 256
WIRE 1040 256 976 256
WIRE 752 272 736 272
WIRE 192 304 192 176
WIRE 784 304 784 288
WIRE 816 304 784 304
WIRE 736 320 736 272
WIRE 784 320 736 320
WIRE 704 336 576 336
WIRE 32 352 32 224
WIRE 192 400 192 384
WIRE 288 400 288 256
WIRE 288 400 192 400
WIRE 576 400 576 336
WIRE 784 416 784 320
WIRE 784 416 704 416
WIRE -112 496 -112 256
WIRE 32 496 32 432
WIRE 32 496 -112 496
WIRE 192 496 192 480
WIRE 192 496 32 496
WIRE 368 496 368 272
WIRE 368 496 192 496
WIRE 576 496 576 480
WIRE 576 496 368 496
WIRE 704 496 576 496
WIRE 816 496 816 304
WIRE 816 496 704 496
WIRE 32 528 32 496
FLAG 32 528 0
SYMBOL Res 176 288 R0
SYMATTR InstName R1
SYMATTR Value 4k7
SYMBOL Res 176 384 R0
SYMATTR InstName R2
SYMATTR Value 15k
SYMBOL current 32 352 R0
WINDOW 3 24 80 Invisible 2
WINDOW 123 24 102 Left 2
SYMATTR Value SINE(0 1p 1k)
SYMATTR Value2 AC 1p
SYMATTR InstName I1
SYMBOL voltage -112 160 R0
SYMATTR InstName V1
SYMATTR Value 9
SYMBOL Res 448 112 R90
WINDOW 0 0 56 VBottom 2
WINDOW 3 32 56 VTop 2
SYMATTR InstName R3
SYMATTR Value 47000k
SYMBOL Cap 416 16 R90
WINDOW 0 0 32 VBottom 2
WINDOW 3 32 32 VTop 2
SYMATTR InstName C1
SYMATTR Value 5p
SYMBOL Res 720 224 R90
WINDOW 0 0 56 VBottom 2
WINDOW 3 32 56 VTop 2
SYMATTR InstName R4
SYMATTR Value 4k7
SYMBOL Cap 592 224 R90
WINDOW 0 0 32 VBottom 2
WINDOW 3 32 32 VTop 2
SYMATTR InstName C2
SYMATTR Value 470n
SYMBOL voltage 576 384 R0
SYMATTR InstName V2
SYMATTR Value 3.3
SYMBOL Res 688 400 R0
SYMATTR InstName R5
SYMATTR Value 10k
SYMBOL Res 688 320 R0
SYMATTR InstName R6
SYMATTR Value 10k
SYMBOL Res 928 128 R90
WINDOW 0 0 56 VBottom 2
WINDOW 3 32 56 VTop 2
SYMATTR InstName R7
SYMATTR Value 1000k
SYMBOL Cap 912 32 R90
WINDOW 0 0 32 VBottom 2
WINDOW 3 32 32 VTop 2
SYMATTR InstName C3
SYMATTR Value 47p
SYMBOL OpAmps/AD822 368 176 R0
SYMATTR InstName U3
SYMBOL OpAmps/AD822 784 192 R0
SYMATTR InstName U1
TEXT -168 16 Left 2 ;.ac oct 100 0.1 10k
